<routes>
    <vType id="car" accel="1.0" decel="4.5" length="5" maxSpeed="25"/>
    <route id="r0" edges="1i 2i 3i"/>
    <vehicle id="veh0" type="car" route="r0" depart="0"/>
</routes>

